Version 4
SHEET 1 880 680
WIRE 128 32 96 32
WIRE 288 32 208 32
WIRE 384 64 192 64
WIRE -64 80 -112 80
WIRE -112 96 -112 80
WIRE 192 96 192 64
WIRE 384 96 384 64
WIRE 96 112 96 32
WIRE 96 112 80 112
WIRE 160 112 96 112
WIRE -64 128 -64 80
WIRE 80 128 80 112
WIRE 80 128 16 128
WIRE 288 128 288 32
WIRE 288 128 224 128
WIRE 160 144 80 144
WIRE 384 192 384 176
WIRE 480 192 384 192
WIRE 384 208 384 192
WIRE -64 224 -160 224
WIRE 80 224 80 144
WIRE 80 224 16 224
WIRE -160 256 -160 224
WIRE 192 288 192 160
WIRE 384 288 192 288
WIRE -160 352 -160 336
WIRE -144 352 -160 352
WIRE -144 368 -144 352
FLAG 480 192 0
FLAG -112 96 0
FLAG -144 368 0
SYMBOL voltage 384 80 R0
WINDOW 123 0 0 Left 0
WINDOW 39 0 0 Left 0
SYMATTR InstName V1
SYMATTR Value 15
SYMBOL voltage 384 192 R0
WINDOW 123 0 0 Left 0
WINDOW 39 0 0 Left 0
SYMATTR InstName V2
SYMATTR Value 15
SYMBOL res 32 112 R90
WINDOW 0 0 56 VBottom 2
WINDOW 3 32 56 VTop 2
SYMATTR InstName R2
SYMATTR Value 2k
SYMBOL res 32 208 R90
WINDOW 0 0 56 VBottom 2
WINDOW 3 32 56 VTop 2
SYMATTR InstName R1
SYMATTR Value 10k
SYMBOL res 224 16 R90
WINDOW 0 0 56 VBottom 2
WINDOW 3 32 56 VTop 2
SYMATTR InstName R3
SYMATTR Value 6.8k
SYMBOL voltage -160 240 R0
WINDOW 123 0 0 Left 0
WINDOW 39 0 0 Left 0
SYMATTR InstName V3
SYMATTR Value SINE(0 10 50 0 0 0)
SYMBOL OpAmps\\OP777 192 64 R0
SYMATTR InstName U2
TEXT -194 392 Left 2 !.tran 2
