Version 4
SHEET 1 880 680
WIRE 224 -128 32 -128
WIRE 560 -128 224 -128
WIRE 560 -96 560 -128
WIRE 32 16 32 -128
WIRE 224 16 224 -128
WIRE 560 16 560 -16
WIRE 224 128 224 96
WIRE 336 128 224 128
WIRE 224 160 224 128
WIRE -144 208 -336 208
WIRE 32 208 32 96
WIRE 32 208 -80 208
WIRE 144 208 32 208
WIRE 160 208 144 208
WIRE 144 240 144 208
WIRE 176 240 144 240
WIRE 240 256 224 256
WIRE 32 288 32 208
WIRE 48 288 32 288
WIRE 48 320 48 288
WIRE -336 336 -336 208
WIRE 240 336 240 256
WIRE 48 432 48 400
WIRE 160 432 48 432
WIRE 240 432 240 416
WIRE 240 432 160 432
WIRE 160 464 160 432
WIRE -336 480 -336 416
FLAG 160 464 0
FLAG 560 16 0
FLAG -336 480 0
SYMBOL res 224 320 R0
SYMATTR InstName R1
SYMATTR Value 150
SYMBOL res 208 0 R0
SYMATTR InstName R2
SYMATTR Value 470
SYMBOL res 16 0 R0
SYMATTR InstName R3
SYMATTR Value 200k
SYMBOL res 32 304 R0
SYMATTR InstName R4
SYMATTR Value 100k
SYMBOL cap -80 192 R90
WINDOW 0 0 32 VBottom 2
WINDOW 3 32 32 VTop 2
SYMATTR InstName C1
SYMATTR Value 0.12µ
SYMBOL cap 400 112 R90
WINDOW 0 0 32 VBottom 2
WINDOW 3 32 32 VTop 2
SYMATTR InstName C2
SYMATTR Value 0.12µ
SYMBOL voltage 560 -112 R0
WINDOW 123 0 0 Left 0
WINDOW 39 0 0 Left 0
SYMATTR InstName V1
SYMATTR Value 15
SYMBOL voltage -336 320 R0
WINDOW 123 0 0 Left 0
WINDOW 39 0 0 Left 0
SYMATTR InstName V2
SYMATTR Value SINE(0 15 500 0 0 0)
SYMBOL nmos 176 160 R0
SYMATTR InstName M1
TEXT -370 504 Left 2 !.tran 1
